*SPEF "IEEE 1481.1999"
*DESIGN "ALU"
*DATE "20:52:33 Friday July 26, 2024"
*VENDOR "unknown"
*PROGRAM "qrouter"
*VERSION "unknown"
*DESIGN_FLOW "qflow"
*DIVIDER /
*DELIMITER :
*BUS_DELIMITER <>
*T_UNIT 1 PS
*C_UNIT 1 FF
*R_UNIT 1 OHM
*L_UNIT 1 HENRY

*NAME_MAP
*1 in_b[0]
*2 AND2X2_7
*3 OAI21X1_92
*4 AOI22X1_16
*5 NOR2X1_62
*6 INVX4_3
*7 NAND2X1_73
*8 AND2X2_20
*9 AOI22X1_15
*10 NAND2X1_60
*11 NAND2X1_31
*12 NAND2X1_40
*13 NAND2X1_41
*14 NOR2X1_33
*15 NAND2X1_58
*16 AND2X2_30
*17 AND2X2_3
*18 in_b[1]
*19 AND2X2_8
*20 INVX4_4
*21 OAI21X1_92
*22 AND2X2_31
*23 NAND2X1_88
*24 AOI22X1_16
*25 NOR2X1_62
*26 NAND2X1_75
*27 AOI22X1_15
*28 AND2X2_21
*29 NAND2X1_48
*30 OAI21X1_99
*31 OAI21X1_67
*32 AOI21X1_40
*33 NAND2X1_38
*34 NAND2X1_59
*35 in_a[4]
*36 NAND2X1_12
*37 AND2X2_30
*38 AOI22X1_16
*39 NAND2X1_73
*40 AOI22X1_15
*41 NAND2X1_75
*42 AND2X2_21
*43 NAND2X1_23
*44 AND2X2_23
*45 OAI21X1_125
*46 INVX2_21
*47 NOR2X1_86
*48 OAI21X1_131
*49 NAND2X1_69
*50 in_b[4]
*51 OAI21X1_6
*52 OR2X2_10
*53 OAI21X1_123
*54 NOR2X1_86
*55 OAI21X1_131
*56 NOR2X1_5
*57 NAND2X1_9
*58 AND2X2_28
*59 NAND2X1_72
*60 AOI22X1_14
*61 INVX2_20
*62 AND2X2_24
*63 OAI21X1_126
*64 in_a[3]
*65 NAND2X1_59
*66 NAND2X1_60
*67 AOI22X1_15
*68 AND2X2_20
*69 NAND2X1_86
*70 AOI22X1_18
*71 NAND2X1_9
*72 NOR2X1_79
*73 NOR2X1_82
*74 INVX2_18
*75 NOR2X1_75
*76 NAND2X1_53
*77 NAND2X1_64
*78 in_b[5]
*79 OAI21X1_34
*80 OAI21X1_130
*81 OAI21X1_29
*82 OR2X2_1
*83 OAI21X1_6
*84 NOR2X1_3
*85 NAND2X1_8
*86 NAND2X1_22
*87 INVX1_2
*88 NAND2X1_84
*89 OAI21X1_9
*90 AND2X2_2
*91 _352_
*92 INVX4_1
*93 NOR2X1_19
*94 AOI21X1_32
*95 NAND2X1_18
*96 OR2X2_4
*97 NAND2X1_4
*98 OAI21X1_40
*99 NOR2X1_16
*100 OAI21X1_53
*101 OAI21X1_43
*102 OAI22X1_3
*103 OAI21X1_19
*104 OAI21X1_17
*105 in_b[3]
*106 OR2X2_8
*107 NAND2X1_67
*108 OAI21X1_123
*109 AOI21X1_47
*110 AND2X2_27
*111 NAND2X1_7
*112 NAND2X1_23
*113 NOR2X1_75
*114 NAND2X1_64
*115 INVX2_16
*116 AOI22X1_14
*117 NOR2X1_89
*118 in_b[2]
*119 OAI21X1_92
*120 AOI22X1_18
*121 NAND2X1_86
*122 INVX2_13
*123 NAND2X1_47
*124 OAI21X1_106
*125 NOR2X1_88
*126 NAND2X1_12
*127 AOI21X1_47
*128 NAND2X1_52
*129 NAND2X1_24
*130 _27_
*131 INVX4_5
*132 OAI21X1_9
*133 OAI21X1_62
*134 OAI21X1_37
*135 OAI21X1_58
*136 AOI21X1_17
*137 OAI21X1_126
*138 NAND3X1_58
*139 OAI21X1_108
*140 OAI21X1_81
*141 NAND3X1_59
*142 in_b[6]
*143 OAI21X1_37
*144 OAI21X1_34
*145 INVX1_5
*146 OAI21X1_39
*147 NOR2X1_15
*148 OAI21X1_53
*149 OAI21X1_11
*150 NAND2X1_26
*151 OR2X2_5
*152 NAND2X1_19
*153 in_a[2]
*154 AND2X2_27
*155 NAND2X1_7
*156 NAND2X1_51
*157 OAI21X1_94
*158 NAND2X1_47
*159 NAND2X1_42
*160 INVX4_6
*161 NAND2X1_48
*162 NAND2X1_58
*163 NAND2X1_22
*164 in_a[1]
*165 AOI21X1_40
*166 NAND2X1_41
*167 NAND2X1_38
*168 INVX4_2
*169 NAND2X1_72
*170 AOI22X1_14
*171 NOR2X1_60
*172 NAND2X1_26
*173 AND2X2_28
*174 NAND2X1_8
*175 _45_
*176 INVX4_6
*177 OAI21X1_106
*178 NOR2X1_88
*179 NAND2X1_49
*180 OAI21X1_91
*181 OAI21X1_136
*182 OAI21X1_137
*183 OAI21X1_15
*184 NAND2X1_46
*185 OAI21X1_102
*186 OAI21X1_88
*187 _556_
*188 INVX4_3
*189 OAI21X1_95
*190 NOR2X1_61
*191 OAI21X1_139
*192 OAI21X1_19
*193 OAI22X1_3
*194 OAI21X1_44
*195 OAI21X1_17
*196 OAI21X1_69
*197 OAI21X1_75
*198 OAI21X1_88
*199 _629_
*200 INVX4_4
*201 NOR2X1_61
*202 OAI21X1_95
*203 OAI21X1_117
*204 OAI21X1_102
*205 OAI21X1_77
*206 NAND2X1_37
*207 OAI21X1_82
*208 OAI21X1_18
*209 OAI22X1_3
*210 OAI21X1_43
*211 reset
*212 AOI21X1_39
*213 AOI21X1_44
*214 OR2X2_7
*215 AOI21X1_50
*216 AOI21X1_21
*217 AOI21X1_35
*218 AOI21X1_5
*219 AOI21X1_38
*220 AOI21X1_59
*221 in_a[5]
*222 NAND2X1_24
*223 NAND2X1_3
*224 NOR2X1_3
*225 OAI21X1_8
*226 AND2X2_31
*227 NAND2X1_88
*228 AOI22X1_16
*229 INVX2_23
*230 _621_
*231 NOR2X1_49
*232 AOI22X1_6
*233 NOR2X1_50
*234 OAI21X1_87
*235 AOI22X1_11
*236 OAI21X1_131
*237 OAI21X1_39
*238 AOI21X1_4
*239 AOI22X1_9
*240 _626_
*241 NOR2X1_51
*242 AOI21X1_37
*243 OAI21X1_82
*244 OAI21X1_128
*245 MUX2X1_3
*246 AOI22X1_10
*247 MUX2X1_1
*248 OAI21X1_40
*249 OAI21X1_63
*250 _360_
*251 INVX4_2
*252 NOR2X1_59
*253 OAI21X1_135
*254 OAI21X1_23
*255 NOR2X1_72
*256 OAI21X1_99
*257 NAND2X1_32
*258 NAND2X1_37
*259 OAI21X1_82
*260 in_a[0]
*261 NOR2X1_33
*262 OAI21X1_75
*263 INVX2_11
*264 NAND2X1_31
*265 NAND2X1_34
*266 AOI22X1_14
*267 NOR2X1_60
*268 NAND2X1_84
*269 in_sel_bF_buf4
*270 BUFX4_1
*271 OAI21X1_125
*272 OAI21X1_91
*273 OAI21X1_109
*274 OAI21X1_97
*275 NAND2X1_53
*276 OAI21X1_80
*277 OAI21X1_94
*278 in_sel_bF_buf3
*279 BUFX4_2
*280 OAI21X1_11
*281 NAND2X1_4
*282 OAI21X1_71
*283 OAI21X1_130
*284 NAND2X1_80
*285 NAND2X1_35
*286 OAI21X1_59
*287 in_sel_bF_buf2
*288 BUFX4_3
*289 AOI21X1_3
*290 OAI21X1_8
*291 OAI21X1_7
*292 OAI21X1_36
*293 INVX4_5
*294 AOI21X1_18
*295 OAI21X1_61
*296 _9_
*297 NOR2X1_55
*298 NAND3X1_56
*299 NAND3X1_57
*300 NAND3X1_63
*301 OAI21X1_122
*302 NAND3X1_12
*303 NAND3X1_31
*304 NAND3X1_53
*305 _237_
*306 INVX2_23
*307 OAI21X1_18
*308 AND2X2_1
*309 NOR2X1_7
*310 NOR2X1_2
*311 NAND2X1_80
*312 OAI21X1_29
*313 OAI21X1_139
*314 _23_
*315 NOR2X1_58
*316 MUX2X1_2
*317 NAND3X1_64
*318 AOI21X1_42
*319 OAI21X1_127
*320 OAI21X1_10
*321 OAI21X1_38
*322 AOI21X1_34
*323 _39_
*324 NOR2X1_64
*325 NAND2X1_30
*326 AOI22X1_11
*327 AOI22X1_9
*328 NAND2X1_54
*329 NAND2X1_81
*330 NAND2X1_20
*331 NAND2X1_6
*332 _6_
*333 INVX2_11
*334 NOR2X1_70
*335 NOR2X1_24
*336 NOR2X1_59
*337 NOR2X1_14
*338 NOR2X1_67
*339 OAI21X1_77
*340 NAND2X1_40
*341 in_a[7]
*342 AND2X2_7
*343 OAI21X1_61
*344 INVX2_2
*345 AND2X2_12
*346 NOR2X1_26
*347 OAI21X1_59
*348 NAND2X1_35
*349 _612_
*350 INVX2_10
*351 NOR2X1_29
*352 AND2X2_11
*353 OAI21X1_62
*354 NOR2X1_24
*355 OAI21X1_63
*356 OAI21X1_71
*357 NOR2X1_27
*358 in_sel_bF_buf1
*359 BUFX4_4
*360 OAI21X1_69
*361 NAND2X1_32
*362 OAI21X1_67
*363 NAND2X1_34
*364 NAND2X1_42
*365 OAI21X1_78
*366 in_sel_bF_buf0
*367 BUFX4_5
*368 AOI21X1_48
*369 OAI21X1_112
*370 OAI21X1_110
*371 OAI21X1_124
*372 AOI21X1_58
*373 NAND2X1_69
*374 _186_
*375 NOR2X1_92
*376 OR2X2_9
*377 NOR2X1_93
*378 NAND3X1_6
*379 INVX1_1
*380 AOI21X1_12
*381 NAND3X1_1
*382 _320_
*383 NOR2X1_3
*384 NOR2X1_11
*385 OAI21X1_28
*386 NOR2X1_4
*387 OAI21X1_30
*388 OAI21X1_32
*389 NAND2X1_5
*390 _321_
*391 NOR2X1_4
*392 AND2X2_5
*393 OAI21X1_5
*394 AOI21X1_2
*395 OAI21X1_3
*396 AOI21X1_1
*397 OAI22X1_1
*398 _165_
*399 INVX2_21
*400 NOR2X1_5
*401 NOR2X1_85
*402 OAI21X1_128
*403 OAI21X1_4
*404 AND2X2_22
*405 NOR2X1_97
*406 _619_
*407 NOR2X1_48
*408 OAI21X1_72
*409 OAI21X1_114
*410 INVX1_39
*411 OAI21X1_3
*412 OAI21X1_76
*413 OAI21X1_54
*414 _168_
*415 NOR2X1_87
*416 AND2X2_5
*417 OAI21X1_116
*418 AOI21X1_52
*419 OAI22X1_8
*420 NAND2X1_1
*421 INVX2_22
*422 _154_
*423 INVX2_20
*424 OAI21X1_112
*425 OAI21X1_128
*426 NOR2X1_85
*427 OAI21X1_4
*428 OAI21X1_15
*429 OAI21X1_135
*430 _610_
*431 INVX2_9
*432 OAI21X1_70
*433 OAI21X1_66
*434 AOI21X1_58
*435 AOI21X1_48
*436 OAI21X1_98
*437 AOI21X1_3
*438 in_a[6]
*439 INVX4_1
*440 OAI21X1_36
*441 NOR2X1_15
*442 OAI21X1_39
*443 AND2X2_8
*444 AND2X2_3
*445 _440_
*446 INVX2_1
*447 AOI21X1_16
*448 OAI21X1_41
*449 AOI21X1_19
*450 OAI21X1_56
*451 OAI21X1_31
*452 OAI21X1_33
*453 _631_
*454 NAND2X1_38
*455 NOR2X1_56
*456 OAI21X1_90
*457 OAI21X1_85
*458 NAND2X1_39
*459 NOR2X1_71
*460 OAI21X1_88
*461 _632_
*462 NAND2X1_39
*463 NOR2X1_53
*464 OAI21X1_76
*465 OAI21X1_75
*466 NAND2X1_44
*467 INVX1_31
*468 OAI21X1_84
*469 _16_
*470 INVX2_13
*471 OAI21X1_95
*472 NAND2X1_50
*473 OAI21X1_78
*474 NAND2X1_46
*475 NOR2X1_67
*476 NOR2X1_72
*477 _48_
*478 INVX2_15
*479 AOI21X1_55
*480 NAND3X1_66
*481 AOI22X1_17
*482 NOR2X1_77
*483 NOR2X1_66
*484 MUX2X1_3
*485 _88_
*486 NAND2X1_55
*487 NAND2X1_66
*488 AOI21X1_43
*489 NAND2X1_71
*490 NAND2X1_56
*491 OAI21X1_100
*492 NOR2X1_76
*493 _124_
*494 NAND2X1_65
*495 INVX1_43
*496 AOI22X1_13
*497 NAND2X1_71
*498 AOI21X1_46
*499 OAI21X1_107
*500 AOI21X1_51
*501 in_sel
*502 BUFX4_2
*503 BUFX4_3
*504 BUFX4_5
*505 BUFX4_1
*506 BUFX4_4
*507 _319_
*508 NOR2X1_2
*509 MUX2X1_1
*510 OAI21X1_28
*511 INVX1_4
*512 OAI21X1_30
*513 NOR2X1_4
*514 _179_
*515 OAI21X1_115
*516 AOI21X1_52
*517 AOI21X1_15
*518 AND2X2_10
*519 OAI21X1_116
*520 NAND2X1_1
*521 _634_
*522 NOR2X1_52
*523 OAI21X1_116
*524 OAI21X1_5
*525 AOI21X1_49
*526 OAI21X1_33
*527 INVX1_32
*528 _414_
*529 NAND2X1_33
*530 NOR2X1_31
*531 OAI22X1_8
*532 INVX2_12
*533 OAI22X1_6
*534 OAI22X1_1
*535 _349_
*536 INVX2_3
*537 OAI22X1_8
*538 OAI22X1_1
*539 OAI21X1_64
*540 OAI22X1_6
*541 OAI21X1_101
*542 _79_
*543 INVX2_17
*544 OAI22X1_7
*545 OAI22X1_5
*546 OAI22X1_2
*547 OAI21X1_12
*548 OAI21X1_133
*549 _123_
*550 NAND2X1_64
*551 OAI21X1_15
*552 NAND2X1_65
*553 OAI21X1_115
*554 AOI22X1_10
*555 OAI21X1_111
*556 _420_
*557 NAND3X1_25
*558 NAND2X1_21
*559 AND2X2_9
*560 NAND3X1_28
*561 NAND3X1_26
*562 NAND2X1_14
*563 _533_
*564 INVX2_7
*565 OAI21X1_132
*566 OAI22X1_2
*567 OAI21X1_111
*568 OAI21X1_68
*569 OAI21X1_85
*570 _499_
*571 INVX2_2
*572 NOR2X1_27
*573 OAI21X1_63
*574 AOI21X1_32
*575 OAI21X1_44
*576 OAI22X1_3
*577 _623_
*578 NAND2X1_36
*579 OAI22X1_5
*580 INVX2_19
*581 AND2X2_13
*582 OAI21X1_83
*583 OAI22X1_7
*584 _229_
*585 NAND2X1_31
*586 OAI21X1_90
*587 NOR2X1_53
*588 INVX1_21
*589 AOI21X1_37
*590 NOR2X1_56
*591 opcode[0]
*592 NOR2X1_44
*593 NOR2X1_57
*594 NAND2X1_33
*595 INVX1_22
*596 NOR2X1_40
*597 opcode[3]
*598 NOR2X1_39
*599 NOR2X1_41
*600 INVX1_24
*601 OAI21X1_70
*602 OAI21X1_86
*603 _447_
*604 INVX2_4
*605 NOR2X1_55
*606 OAI21X1_68
*607 NOR2X1_48
*608 NOR2X1_52
*609 NOR2X1_58
*610 _489_
*611 INVX2_5
*612 NOR2X1_46
*613 NOR2X1_51
*614 NOR2X1_55
*615 OAI21X1_68
*616 NOR2X1_49
*617 _47_
*618 NAND2X1_47
*619 NAND2X1_55
*620 INVX2_15
*621 NOR3X1_5
*622 OAI21X1_118
*623 OAI21X1_138
*624 _76_
*625 INVX2_16
*626 OAI21X1_97
*627 NOR2X1_78
*628 OAI21X1_136
*629 OAI21X1_137
*630 NOR2X1_70
*631 _309_
*632 NAND3X1_5
*633 NAND2X1_17
*634 AOI21X1_7
*635 NAND3X1_7
*636 NAND3X1_10
*637 _310_
*638 NAND3X1_6
*639 NAND3X1_10
*640 NAND3X1_7
*641 NAND2X1_17
*642 AOI21X1_7
*643 _334_
*644 AND2X2_1
*645 NOR2X1_8
*646 NAND2X1_18
*647 OR2X2_4
*648 AOI21X1_32
*649 _153_
*650 INVX2_19
*651 NAND2X1_82
*652 AOI22X1_5
*653 NAND2X1_5
*654 AOI22X1_12
*655 _512_
*656 NOR2X1_42
*657 INVX2_7
*658 AOI22X1_6
*659 MUX2X1_3
*660 MUX2X1_1
*661 _369_
*662 OAI21X1_13
*663 NAND3X1_26
*664 NAND2X1_16
*665 AOI21X1_29
*666 NAND3X1_48
*667 _377_
*668 NAND2X1_8
*669 OR2X2_3
*670 OAI21X1_46
*671 INVX1_6
*672 NAND3X1_15
*673 _378_
*674 NAND2X1_9
*675 XOR2X1_1
*676 XNOR2X1_3
*677 OAI21X1_16
*678 OR2X2_2
*679 _384_
*680 OAI21X1_16
*681 NAND2X1_10
*682 OAI21X1_46
*683 OR2X2_3
*684 OAI21X1_23
*685 _388_
*686 NAND2X1_12
*687 NAND3X1_17
*688 NAND3X1_19
*689 INVX1_7
*690 OAI21X1_42
*691 _277_
*692 AND2X2_31
*693 OAI21X1_19
*694 NOR2X1_23
*695 NAND2X1_13
*696 NAND2X1_87
*697 _273_
*698 NAND2X1_86
*699 OAI21X1_20
*700 NOR3X1_7
*701 OAI21X1_140
*702 INVX1_51
*703 _416_
*704 NAND3X1_24
*705 AND2X2_9
*706 NAND3X1_28
*707 NAND3X1_26
*708 NAND2X1_14
*709 _169_
*710 INVX2_22
*711 OAI21X1_129
*712 OAI21X1_30
*713 AND2X2_19
*714 OAI21X1_114
*715 _338_
*716 NOR2X1_37
*717 INVX2_3
*718 AOI21X1_19
*719 NAND2X1_44
*720 AOI22X1_13
*721 _15_
*722 INVX2_12
*723 AOI22X1_5
*724 AOI22X1_12
*725 AOI21X1_41
*726 AOI22X1_8
*727 _36_
*728 INVX2_14
*729 OAI21X1_129
*730 OAI21X1_41
*731 OAI21X1_65
*732 OAI21X1_84
*733 opcode[1]
*734 INVX1_27
*735 NOR2X1_44
*736 NOR2X1_35
*737 AOI21X1_33
*738 opcode[2]
*739 NOR2X1_39
*740 NOR2X1_47
*741 INVX1_26
*742 NOR2X1_36
*743 _511_
*744 INVX2_6
*745 NOR2X1_64
*746 NOR2X1_45
*747 NOR2X1_42
*748 NOR2X1_49
*749 _608_
*750 INVX2_8
*751 NOR2X1_45
*752 NOR2X1_52
*753 NOR2X1_63
*754 NOR2X1_47
*755 _65_
*756 NAND2X1_50
*757 NAND3X1_58
*758 NAND2X1_67
*759 OR2X2_8
*760 OAI21X1_123
*761 _89_
*762 OAI21X1_99
*763 OAI21X1_100
*764 NAND2X1_66
*765 AOI21X1_43
*766 INVX1_45
*767 _137_
*768 INVX2_18
*769 NOR2X1_81
*770 NOR2X1_80
*771 NOR2X1_89
*772 OAI21X1_117
*773 _299_
*774 AOI21X1_62
*775 OAI21X1_2
*776 NOR3X1_2
*777 OAI21X1_1
*778 _298_
*779 NOR3X1_9
*780 OAI21X1_2
*781 NOR3X1_2
*782 OAI21X1_1
*783 _297_
*784 AOI21X1_61
*785 NAND3X1_2
*786 OAI21X1_1
*787 NOR3X1_2
*788 _300_
*789 OAI21X1_1
*790 AOI21X1_12
*791 NAND3X1_1
*792 NAND3X1_5
*793 _296_
*794 NAND3X1_77
*795 NAND3X1_1
*796 NAND3X1_5
*797 OAI21X1_13
*798 _302_
*799 INVX1_1
*800 OAI21X1_13
*801 NAND3X1_5
*802 NAND3X1_3
*803 _258_
*804 OAI21X1_134
*805 OAI21X1_2
*806 NAND3X1_77
*807 AOI21X1_8
*808 _290_
*809 NAND3X1_76
*810 NAND3X1_77
*811 NAND3X1_2
*812 AOI21X1_8
*813 _295_
*814 OAI21X1_142
*815 AOI21X1_8
*816 NAND3X1_77
*817 NAND3X1_2
*818 _257_
*819 NAND3X1_71
*820 AOI21X1_7
*821 NAND3X1_4
*822 NAND3X1_10
*823 _308_
*824 NOR2X1_1
*825 NAND3X1_7
*826 AOI22X1_4
*827 NAND3X1_9
*828 _313_
*829 NAND3X1_9
*830 NAND3X1_11
*831 AOI21X1_13
*832 NAND3X1_29
*833 _315_
*834 NAND3X1_11
*835 NAND3X1_12
*836 OAI21X1_27
*837 OAI21X1_51
*838 _142_
*839 OR2X2_8
*840 OR2X2_10
*841 OAI21X1_6
*842 NAND2X1_68
*843 _219_
*844 OR2X2_10
*845 OAI21X1_34
*846 OR2X2_1
*847 NAND2X1_79
*848 _223_
*849 AND2X2_22
*850 AND2X2_1
*851 NOR2X1_7
*852 NOR2X1_98
*853 _227_
*854 AND2X2_23
*855 NOR2X1_99
*856 OAI21X1_8
*857 NAND2X1_3
*858 _231_
*859 AND2X2_24
*860 OAI21X1_9
*861 AND2X2_2
*862 NOR2X1_100
*863 _344_
*864 AND2X2_2
*865 NOR2X1_10
*866 OAI21X1_37
*867 NAND2X1_19
*868 _35_
*869 NOR2X1_63
*870 INVX2_14
*871 AOI22X1_10
*872 AOI21X1_4
*873 _354_
*874 OAI21X1_11
*875 NAND2X1_20
*876 OAI22X1_5
*877 OAI22X1_1
*878 _239_
*879 OAI21X1_130
*880 NAND2X1_6
*881 OAI22X1_2
*882 OAI22X1_8
*883 _371_
*884 INVX1_5
*885 NOR2X1_14
*886 OAI21X1_40
*887 NOR2X1_16
*888 _373_
*889 NAND2X1_7
*890 OAI21X1_14
*891 OAI21X1_16
*892 OR2X2_2
*893 _185_
*894 NAND2X1_72
*895 NOR2X1_92
*896 OAI21X1_137
*897 OAI21X1_14
*898 _269_
*899 NAND3X1_73
*900 AND2X2_29
*901 NAND2X1_89
*902 OAI21X1_14
*903 _270_
*904 AND2X2_29
*905 AOI21X1_9
*906 NAND3X1_76
*907 AOI21X1_62
*908 _289_
*909 OAI21X1_141
*910 NAND3X1_76
*911 AOI21X1_62
*912 AOI21X1_9
*913 _292_
*914 NOR3X1_8
*915 OAI21X1_142
*916 NOR3X1_9
*917 AOI21X1_9
*918 _382_
*919 NAND3X1_15
*920 AOI22X1_2
*921 NAND2X1_11
*922 AOI22X1_1
*923 _385_
*924 NAND2X1_10
*925 AOI22X1_2
*926 NAND2X1_11
*927 AOI22X1_1
*928 _275_
*929 OAI21X1_139
*930 AOI22X1_18
*931 NAND3X1_74
*932 AOI21X1_10
*933 _282_
*934 NOR2X1_104
*935 NOR3X1_7
*936 OAI21X1_140
*937 AOI21X1_10
*938 _387_
*939 AOI21X1_10
*940 AOI21X1_26
*941 NAND3X1_23
*942 NAND3X1_18
*943 _390_
*944 AND2X2_3
*945 OAI21X1_18
*946 NOR2X1_23
*947 NAND2X1_13
*948 _391_
*949 NAND2X1_13
*950 OAI21X1_42
*951 NAND3X1_16
*952 NAND3X1_19
*953 _280_
*954 AOI22X1_16
*955 OAI21X1_20
*956 NOR3X1_7
*957 OAI21X1_140
*958 _278_
*959 NAND2X1_87
*960 AOI22X1_18
*961 NAND3X1_74
*962 OAI21X1_20
*963 _400_
*964 NAND3X1_19
*965 NAND3X1_21
*966 AOI21X1_26
*967 NAND3X1_23
*968 _401_
*969 NAND3X1_20
*970 NAND3X1_23
*971 AOI21X1_26
*972 NAND3X1_21
*973 _406_
*974 NAND3X1_23
*975 AOI21X1_27
*976 AOI22X1_3
*977 AOI22X1_1
*978 _291_
*979 NAND2X1_89
*980 OAI21X1_142
*981 NOR3X1_9
*982 OAI21X1_22
*983 _293_
*984 AOI21X1_60
*985 OAI21X1_142
*986 NOR3X1_9
*987 OAI21X1_22
*988 _285_
*989 NAND3X1_75
*990 OAI21X1_22
*991 NAND3X1_76
*992 AOI21X1_62
*993 _418_
*994 OAI21X1_25
*995 NAND2X1_21
*996 NAND3X1_25
*997 INVX1_16
*998 _421_
*999 NAND3X1_26
*1000 NOR2X1_25
*1001 NAND3X1_27
*1002 AOI22X1_4
*1003 _423_
*1004 AOI21X1_12
*1005 NAND2X1_15
*1006 NAND3X1_28
*1007 OAI21X1_50
*1008 _424_
*1009 NAND2X1_14
*1010 NAND2X1_15
*1011 OAI21X1_50
*1012 NAND2X1_16
*1013 _439_
*1014 NOR2X1_17
*1015 AOI21X1_14
*1016 OAI21X1_55
*1017 INVX2_1
*1018 _175_
*1019 OAI21X1_113
*1020 OAI21X1_114
*1021 AND2X2_19
*1022 AND2X2_4
*1023 _90_
*1024 INVX1_39
*1025 AOI21X1_14
*1026 AOI21X1_43
*1027 AOI21X1_46
*1028 _453_
*1029 AOI21X1_15
*1030 OAI21X1_33
*1031 OAI21X1_56
*1032 AOI21X1_16
*1033 _459_
*1034 OR2X2_5
*1035 AOI21X1_18
*1036 AND2X2_11
*1037 NOR2X1_29
*1038 _609_
*1039 NOR2X1_45
*1040 INVX2_9
*1041 OAI21X1_35
*1042 MUX2X1_2
*1043 _463_
*1044 NOR2X1_19
*1045 NOR2X1_20
*1046 AND2X2_12
*1047 OAI21X1_61
*1048 _473_
*1049 INVX1_11
*1050 OAI22X1_2
*1051 NAND3X1_54
*1052 OAI21X1_56
*1053 _614_
*1054 OAI21X1_71
*1055 AOI22X1_5
*1056 INVX1_19
*1057 AOI22X1_7
*1058 _502_
*1059 NAND2X1_24
*1060 NAND3X1_37
*1061 NAND3X1_35
*1062 INVX1_12
*1063 _523_
*1064 NAND3X1_41
*1065 NAND3X1_42
*1066 NAND3X1_44
*1067 INVX1_15
*1068 _524_
*1069 AOI21X1_25
*1070 INVX1_14
*1071 OAI21X1_47
*1072 OAI21X1_48
*1073 _543_
*1074 NAND2X1_28
*1075 INVX1_17
*1076 AOI21X1_29
*1077 NAND3X1_48
*1078 in_b[7]
*1079 NOR2X1_30
*1080 NOR2X1_26
*1081 INVX2_10
*1082 _563_
*1083 NOR2X1_26
*1084 OAI21X1_57
*1085 NOR2X1_28
*1086 INVX1_20
*1087 _564_
*1088 NOR2X1_27
*1089 OAI21X1_57
*1090 NOR2X1_28
*1091 AOI22X1_6
*1092 _565_
*1093 NOR2X1_28
*1094 OAI21X1_64
*1095 INVX1_18
*1096 NAND3X1_54
*1097 _566_
*1098 INVX1_18
*1099 OAI21X1_65
*1100 OAI21X1_54
*1101 AOI21X1_30
*1102 _635_
*1103 INVX1_32
*1104 AOI21X1_31
*1105 OAI21X1_101
*1106 NOR2X1_54
*1107 _240_
*1108 INVX1_21
*1109 OAI21X1_74
*1110 NOR2X1_34
*1111 AOI21X1_36
*1112 _251_
*1113 NOR2X1_33
*1114 AND2X2_13
*1115 NOR2X1_34
*1116 NOR2X1_50
*1117 _294_
*1118 INVX1_23
*1119 NOR2X1_42
*1120 NOR2X1_48
*1121 NOR2X1_37
*1122 _327_
*1123 INVX1_25
*1124 NOR2X1_37
*1125 NOR2X1_51
*1126 NOR2X1_63
*1127 _381_
*1128 OAI21X1_67
*1129 OAI22X1_7
*1130 AOI22X1_9
*1131 OAI22X1_6
*1132 _606_
*1133 INVX1_29
*1134 OAI21X1_70
*1135 NOR2X1_64
*1136 NOR2X1_58
*1137 _630_
*1138 NAND2X1_37
*1139 OAI21X1_83
*1140 AOI22X1_9
*1141 NAND2X1_39
*1142 _11_
*1143 INVX1_34
*1144 NOR2X1_68
*1145 NAND3X1_56
*1146 OAI21X1_105
*1147 _18_
*1148 OAI21X1_78
*1149 AOI22X1_13
*1150 AOI22X1_8
*1151 INVX1_38
*1152 _19_
*1153 NOR2X1_57
*1154 INVX2_17
*1155 AOI22X1_8
*1156 AOI22X1_13
*1157 _24_
*1158 NOR2X1_59
*1159 NAND2X1_51
*1160 OAI21X1_94
*1161 OAI21X1_80
*1162 _25_
*1163 NOR2X1_60
*1164 NAND2X1_49
*1165 OAI21X1_80
*1166 OAI21X1_91
*1167 _28_
*1168 NOR2X1_61
*1169 OAI21X1_81
*1170 NAND2X1_52
*1171 AOI21X1_47
*1172 _46_
*1173 NAND2X1_46
*1174 NAND2X1_55
*1175 OAI22X1_7
*1176 OAI21X1_87
*1177 _49_
*1178 AOI21X1_40
*1179 NOR2X1_76
*1180 OAI21X1_101
*1181 OAI21X1_86
*1182 _57_
*1183 XOR2X1_3
*1184 NOR2X1_68
*1185 OAI21X1_105
*1186 OAI21X1_90
*1187 _98_
*1188 NOR2X1_70
*1189 INVX1_41
*1190 NAND3X1_61
*1191 AOI21X1_53
*1192 _101_
*1193 AOI21X1_45
*1194 NAND2X1_62
*1195 NOR2X1_73
*1196 INVX1_40
*1197 _103_
*1198 NOR2X1_72
*1199 AOI21X1_54
*1200 XOR2X1_4
*1201 XNOR2X1_6
*1202 _105_
*1203 NAND2X1_60
*1204 NOR2X1_94
*1205 OAI21X1_102
*1206 NOR2X1_95
*1207 _113_
*1208 INVX1_41
*1209 NOR2X1_92
*1210 OAI21X1_104
*1211 OAI21X1_121
*1212 _117_
*1213 NAND3X1_62
*1214 NAND3X1_63
*1215 AOI21X1_57
*1216 INVX1_47
*1217 _121_
*1218 NOR2X1_75
*1219 OAI21X1_115
*1220 INVX1_42
*1221 AOI22X1_12
*1222 _133_
*1223 NOR2X1_78
*1224 OAI21X1_108
*1225 OAI21X1_126
*1226 AND2X2_24
*1227 _138_
*1228 NOR2X1_80
*1229 OAI21X1_109
*1230 OAI21X1_125
*1231 AND2X2_23
*1232 _145_
*1233 NOR2X1_82
*1234 NOR2X1_83
*1235 NOR2X1_97
*1236 AND2X2_22
*1237 _189_
*1238 AOI21X1_54
*1239 OAI21X1_119
*1240 NOR3X1_6
*1241 INVX1_46
*1242 _192_
*1243 OAI21X1_117
*1244 AOI21X1_55
*1245 NAND3X1_66
*1246 AOI22X1_17
*1247 _195_
*1248 NAND2X1_74
*1249 NAND3X1_66
*1250 AOI21X1_55
*1251 OAI21X1_138
*1252 _197_
*1253 AOI22X1_15
*1254 OAI21X1_138
*1255 NOR3X1_5
*1256 OAI21X1_118
*1257 _205_
*1258 NAND3X1_68
*1259 NAND3X1_69
*1260 NAND3X1_71
*1261 NAND2X1_76
*1262 _209_
*1263 OAI21X1_120
*1264 NAND3X1_69
*1265 NAND2X1_76
*1266 NAND3X1_71
*1267 _301_
*1268 NAND3X1_1
*1269 NAND3X1_9
*1270 NAND3X1_4
*1271 _303_
*1272 OAI21X1_2
*1273 NAND3X1_6
*1274 NAND3X1_3
*1275 _304_
*1276 NAND3X1_2
*1277 NAND3X1_3
*1278 NAND3X1_6
*1279 _306_
*1280 NAND3X1_3
*1281 NAND3X1_4
*1282 NAND3X1_9
*1283 _307_
*1284 NAND3X1_4
*1285 NAND3X1_8
*1286 AOI21X1_6
*1287 _183_
*1288 AOI21X1_53
*1289 NAND3X1_69
*1290 NOR2X1_1
*1291 _212_
*1292 NAND2X1_76
*1293 NAND2X1_77
*1294 NOR2X1_1
*1295 _311_
*1296 NAND3X1_7
*1297 AOI21X1_6
*1298 NAND3X1_8
*1299 _256_
*1300 NAND2X1_83
*1301 NAND3X1_8
*1302 AOI21X1_6
*1303 _214_
*1304 AOI21X1_57
*1305 NAND3X1_11
*1306 NOR2X1_96
*1307 _318_
*1308 INVX1_2
*1309 OAI21X1_23
*1310 NOR2X1_2
*1311 _322_
*1312 NOR2X1_5
*1313 NOR2X1_6
*1314 OAI21X1_28
*1315 _176_
*1316 AND2X2_19
*1317 NOR2X1_90
*1318 NOR2X1_6
*1319 _323_
*1320 NOR2X1_6
*1321 OAI21X1_3
*1322 AOI21X1_1
*1323 _328_
*1324 OAI21X1_4
*1325 OAI21X1_5
*1326 AOI21X1_2
*1327 _332_
*1328 OR2X2_1
*1329 OR2X2_5
*1330 NAND2X1_2
*1331 _340_
*1332 NAND2X1_3
*1333 INVX1_3
*1334 NOR2X1_19
*1335 _341_
*1336 INVX1_3
*1337 OAI21X1_36
*1338 NOR2X1_9
*1339 _348_
*1340 INVX1_4
*1341 OAI21X1_32
*1342 AOI21X1_4
*1343 _244_
*1344 INVX1_49
*1345 NAND2X1_81
*1346 OAI21X1_12
*1347 _366_
*1348 AOI21X1_6
*1349 AOI21X1_22
*1350 NAND3X1_30
*1351 _372_
*1352 NOR2X1_14
*1353 XNOR2X1_1
*1354 NAND2X1_28
*1355 _374_
*1356 OAI21X1_14
*1357 XNOR2X1_1
*1358 NAND2X1_28
*1359 _375_
*1360 XNOR2X1_1
*1361 NAND3X1_24
*1362 INVX1_8
*1363 _376_
*1364 AOI21X1_9
*1365 OAI21X1_26
*1366 OAI21X1_21
*1367 _379_
*1368 OR2X2_2
*1369 NAND3X1_15
*1370 OAI21X1_46
*1371 _380_
*1372 OAI21X1_15
*1373 NAND3X1_15
*1374 OAI21X1_16
*1375 _386_
*1376 NAND2X1_11
*1377 AOI21X1_11
*1378 AOI21X1_27
*1379 _274_
*1380 INVX1_51
*1381 NAND3X1_74
*1382 AOI21X1_10
*1383 _389_
*1384 INVX1_7
*1385 NAND3X1_16
*1386 NAND3X1_20
*1387 _281_
*1388 NAND2X1_88
*1389 OAI21X1_17
*1390 NOR2X1_104
*1391 _393_
*1392 OAI21X1_17
*1393 NAND3X1_16
*1394 NAND3X1_19
*1395 _394_
*1396 NAND3X1_16
*1397 NAND3X1_18
*1398 NAND3X1_22
*1399 _395_
*1400 OAI21X1_18
*1401 NAND3X1_17
*1402 NAND3X1_20
*1403 _396_
*1404 OAI21X1_19
*1405 NAND3X1_17
*1406 NAND3X1_20
*1407 _397_
*1408 NAND3X1_17
*1409 NAND3X1_22
*1410 NAND3X1_18
*1411 _398_
*1412 NAND3X1_18
*1413 AOI21X1_11
*1414 AOI22X1_2
*1415 _399_
*1416 OAI21X1_20
*1417 NAND3X1_22
*1418 NAND3X1_21
*1419 _402_
*1420 NAND3X1_21
*1421 AOI21X1_11
*1422 AOI22X1_2
*1423 _404_
*1424 AOI21X1_11
*1425 OAI21X1_21
*1426 OAI21X1_25
*1427 _405_
*1428 NAND3X1_22
*1429 AOI22X1_3
*1430 AOI22X1_1
*1431 _407_
*1432 AOI22X1_1
*1433 OAI21X1_21
*1434 OAI21X1_25
*1435 _409_
*1436 OAI21X1_22
*1437 OAI21X1_24
*1438 OAI21X1_25
*1439 _410_
*1440 AOI22X1_2
*1441 OAI21X1_24
*1442 OAI21X1_26
*1443 _413_
*1444 AOI22X1_3
*1445 OAI21X1_26
*1446 OAI21X1_24
*1447 _417_
*1448 INVX1_8
*1449 AOI21X1_28
*1450 NAND3X1_25
*1451 _419_
*1452 OAI21X1_26
*1453 NAND3X1_25
*1454 AOI21X1_28
*1455 _426_
*1456 NAND2X1_15
*1457 AOI22X1_4
*1458 NAND3X1_27
*1459 _427_
*1460 NAND3X1_27
*1461 OAI21X1_51
*1462 NAND3X1_30
*1463 _428_
*1464 NAND2X1_16
*1465 NAND3X1_29
*1466 AOI21X1_13
*1467 _429_
*1468 NAND3X1_28
*1469 AOI21X1_13
*1470 NAND3X1_29
*1471 _430_
*1472 NAND3X1_29
*1473 AOI21X1_22
*1474 NAND3X1_30
*1475 _432_
*1476 AOI21X1_13
*1477 OAI21X1_27
*1478 AOI21X1_22
*1479 _434_
*1480 AOI22X1_4
*1481 OAI21X1_27
*1482 OAI21X1_51
*1483 _437_
*1484 NOR2X1_15
*1485 AOI22X1_5
*1486 NOR2X1_17
*1487 _438_
*1488 NOR2X1_16
*1489 INVX1_11
*1490 NOR2X1_17
*1491 _442_
*1492 OAI21X1_29
*1493 OAI21X1_31
*1494 NOR2X1_18
*1495 _445_
*1496 AND2X2_4
*1497 OAI21X1_31
*1498 NOR2X1_18
*1499 _448_
*1500 OAI21X1_31
*1501 OAI21X1_53
*1502 AOI21X1_20
*1503 _243_
*1504 INVX1_48
*1505 OAI21X1_132
*1506 OAI21X1_32
*1507 _451_
*1508 OAI21X1_32
*1509 AOI21X1_15
*1510 OAI21X1_55
*1511 _452_
*1512 AND2X2_5
*1513 AOI21X1_15
*1514 AND2X2_10
*1515 _456_
*1516 NAND2X1_18
*1517 OAI21X1_59
*1518 AOI21X1_17
*1519 _466_
*1520 NAND2X1_19
*1521 INVX1_10
*1522 OAI21X1_62
*1523 _467_
*1524 INVX1_10
*1525 NOR2X1_30
*1526 NOR2X1_21
*1527 _488_
*1528 NAND2X1_21
*1529 NAND3X1_47
*1530 NAND3X1_43
*1531 _494_
*1532 XNOR2X1_2
*1533 AOI21X1_25
*1534 NAND3X1_41
*1535 _495_
*1536 NAND2X1_23
*1537 XNOR2X1_3
*1538 XOR2X1_1
*1539 _496_
*1540 XOR2X1_1
*1541 AOI21X1_24
*1542 NAND3X1_36
*1543 _497_
*1544 AND2X2_7
*1545 OAI21X1_43
*1546 NAND2X1_25
*1547 _498_
*1548 OAI21X1_43
*1549 NAND3X1_34
*1550 NAND3X1_37
*1551 _500_
*1552 AND2X2_8
*1553 OAI21X1_44
*1554 NAND2X1_25
*1555 _501_
*1556 OAI21X1_44
*1557 NAND3X1_34
*1558 NAND3X1_37
*1559 _503_
*1560 INVX1_12
*1561 NAND3X1_38
*1562 NAND3X1_34
*1563 _504_
*1564 NAND3X1_34
*1565 NAND3X1_36
*1566 AOI21X1_24
*1567 _505_
*1568 OAI22X1_3
*1569 NAND3X1_38
*1570 NAND3X1_35
*1571 _506_
*1572 NAND2X1_25
*1573 NAND3X1_38
*1574 NAND3X1_35
*1575 _507_
*1576 NAND3X1_35
*1577 NAND3X1_36
*1578 AOI21X1_24
*1579 _509_
*1580 XNOR2X1_3
*1581 NAND3X1_39
*1582 AOI21X1_23
*1583 _510_
*1584 NAND3X1_37
*1585 NAND3X1_39
*1586 AOI21X1_23
*1587 _513_
*1588 NAND3X1_38
*1589 NAND3X1_39
*1590 AOI21X1_23
*1591 _517_
*1592 XNOR2X1_4
*1593 INVX1_13
*1594 OAI21X1_45
*1595 _519_
*1596 NAND3X1_40
*1597 NAND3X1_41
*1598 AOI21X1_25
*1599 _522_
*1600 OAI21X1_45
*1601 NAND3X1_41
*1602 AOI21X1_25
*1603 _525_
*1604 INVX1_14
*1605 NAND3X1_42
*1606 NAND3X1_44
*1607 _526_
*1608 OAI21X1_46
*1609 XNOR2X1_5
*1610 XOR2X1_2
*1611 _528_
*1612 AOI21X1_27
*1613 XOR2X1_2
*1614 XNOR2X1_5
*1615 _529_
*1616 XNOR2X1_5
*1617 NAND3X1_42
*1618 OAI21X1_48
*1619 _530_
*1620 NAND3X1_42
*1621 NAND3X1_43
*1622 NAND3X1_46
*1623 _531_
*1624 INVX1_15
*1625 OAI21X1_47
*1626 OAI21X1_48
*1627 _532_
*1628 XOR2X1_2
*1629 NAND3X1_44
*1630 OAI21X1_47
*1631 _535_
*1632 OAI21X1_47
*1633 NAND3X1_46
*1634 NAND3X1_43
*1635 _538_
*1636 AOI21X1_28
*1637 NAND3X1_45
*1638 NAND3X1_46
*1639 _539_
*1640 OAI21X1_48
*1641 NAND3X1_47
*1642 NAND3X1_45
*1643 _540_
*1644 NAND3X1_44
*1645 NAND3X1_47
*1646 NAND3X1_45
*1647 _542_
*1648 NAND2X1_27
*1649 OAI21X1_49
*1650 NAND3X1_51
*1651 _544_
*1652 AND2X2_9
*1653 AOI21X1_29
*1654 NAND3X1_48
*1655 _546_
*1656 AOI21X1_29
*1657 OAI21X1_49
*1658 OAI21X1_52
*1659 _547_
*1660 INVX1_17
*1661 OAI21X1_50
*1662 NOR2X1_25
*1663 _548_
*1664 NOR2X1_25
*1665 OAI21X1_52
*1666 OAI21X1_49
*1667 _552_
*1668 NAND2X1_29
*1669 NAND3X1_49
*1670 OAI21X1_52
*1671 _553_
*1672 OAI21X1_50
*1673 NAND3X1_49
*1674 NAND3X1_51
*1675 _554_
*1676 NAND3X1_48
*1677 NAND3X1_51
*1678 NAND3X1_49
*1679 _568_
*1680 OAI21X1_53
*1681 OAI21X1_54
*1682 AOI21X1_30
*1683 _589_
*1684 INVX1_28
*1685 AOI22X1_7
*1686 NOR2X1_31
*1687 _596_
*1688 INVX1_20
*1689 AOI22X1_6
*1690 OAI22X1_5
*1691 _261_
*1692 NOR2X1_34
*1693 OAI21X1_72
*1694 OAI22X1_6
*1695 _272_
*1696 INVX1_22
*1697 NOR2X1_43
*1698 NOR2X1_35
*1699 _305_
*1700 INVX1_24
*1701 NOR2X1_36
*1702 NOR2X1_38
*1703 _316_
*1704 NOR2X1_36
*1705 NAND2X1_36
*1706 INVX1_25
*1707 _392_
*1708 INVX1_26
*1709 NOR2X1_41
*1710 NOR2X1_38
*1711 _403_
*1712 NOR2X1_38
*1713 INVX1_30
*1714 NAND2X1_33
*1715 _468_
*1716 INVX1_27
*1717 NOR2X1_43
*1718 NOR2X1_40
*1719 _578_
*1720 OAI21X1_69
*1721 AOI22X1_8
*1722 INVX1_28
*1723 _600_
*1724 NOR2X1_43
*1725 INVX1_29
*1726 NAND2X1_36
*1727 _615_
*1728 INVX1_30
*1729 NOR2X1_57
*1730 NOR2X1_46
*1731 _618_
*1732 NOR2X1_47
*1733 OAI21X1_86
*1734 OAI21X1_72
*1735 _636_
*1736 NOR2X1_53
*1737 AOI21X1_40
*1738 NOR2X1_54
*1739 _4_
*1740 OAI21X1_75
*1741 OAI21X1_99
*1742 INVX1_33
*1743 _12_
*1744 NAND2X1_41
*1745 OAI21X1_77
*1746 OAI21X1_89
*1747 _29_
*1748 NOR2X1_62
*1749 NAND2X1_50
*1750 OAI21X1_81
*1751 _53_
*1752 NOR2X1_67
*1753 XOR2X1_3
*1754 AOI21X1_45
*1755 _54_
*1756 NAND2X1_48
*1757 OAI21X1_89
*1758 NOR2X1_94
*1759 _55_
*1760 OAI21X1_88
*1761 AOI21X1_45
*1762 OAI21X1_89
*1763 _58_
*1764 NOR2X1_68
*1765 NAND3X1_62
*1766 INVX1_35
*1767 _62_
*1768 NAND2X1_49
*1769 INVX1_36
*1770 NOR2X1_82
*1771 _63_
*1772 INVX1_36
*1773 NOR2X1_81
*1774 OAI21X1_93
*1775 _69_
*1776 NAND2X1_51
*1777 INVX1_37
*1778 NOR2X1_80
*1779 _70_
*1780 INVX1_37
*1781 NOR2X1_79
*1782 OAI21X1_96
*1783 _72_
*1784 NAND2X1_52
*1785 NOR2X1_78
*1786 NAND3X1_59
*1787 _78_
*1788 OAI21X1_97
*1789 AOI21X1_41
*1790 INVX1_44
*1791 _99_
*1792 NAND2X1_58
*1793 NOR2X1_71
*1794 OAI21X1_103
*1795 _102_
*1796 INVX1_40
*1797 NAND2X1_61
*1798 NOR2X1_74
*1799 _106_
*1800 OAI21X1_102
*1801 AOI21X1_54
*1802 OAI21X1_103
*1803 _107_
*1804 OAI21X1_103
*1805 XOR2X1_4
*1806 XNOR2X1_6
*1807 _108_
*1808 XNOR2X1_6
*1809 NAND2X1_61
*1810 NOR2X1_74
*1811 _109_
*1812 NAND2X1_61
*1813 OAI21X1_121
*1814 NAND3X1_61
*1815 _110_
*1816 XOR2X1_4
*1817 NOR2X1_73
*1818 NAND2X1_62
*1819 _111_
*1820 NAND2X1_62
*1821 AOI21X1_53
*1822 NAND3X1_61
*1823 _112_
*1824 NAND3X1_61
*1825 NAND3X1_62
*1826 NAND2X1_63
*1827 _114_
*1828 NOR2X1_73
*1829 AOI21X1_53
*1830 OAI21X1_104
*1831 _115_
*1832 NOR2X1_74
*1833 OAI21X1_121
*1834 OAI21X1_104
*1835 _116_
*1836 OAI21X1_104
*1837 NAND2X1_63
*1838 NAND3X1_62
*1839 _122_
*1840 INVX1_42
*1841 AOI22X1_11
*1842 NAND2X1_65
*1843 _125_
*1844 INVX1_43
*1845 AOI22X1_10
*1846 XNOR2X1_7
*1847 _127_
*1848 NOR2X1_77
*1849 XNOR2X1_7
*1850 OAI21X1_115
*1851 _130_
*1852 OAI21X1_106
*1853 OAI21X1_107
*1854 AOI21X1_46
*1855 _150_
*1856 INVX1_44
*1857 AOI22X1_11
*1858 OAI21X1_133
*1859 _156_
*1860 OAI21X1_112
*1861 AOI22X1_12
*1862 INVX1_49
*1863 _166_
*1864 NOR2X1_85
*1865 NOR2X1_87
*1866 INVX1_48
*1867 _167_
*1868 NOR2X1_86
*1869 NAND2X1_82
*1870 NOR2X1_87
*1871 _184_
*1872 AOI22X1_14
*1873 OR2X2_9
*1874 NOR2X1_93
*1875 _187_
*1876 NOR2X1_93
*1877 AOI21X1_61
*1878 NAND3X1_68
*1879 _190_
*1880 INVX1_46
*1881 NAND3X1_67
*1882 AOI21X1_56
*1883 _191_
*1884 NAND2X1_73
*1885 NOR2X1_104
*1886 OAI21X1_117
*1887 _193_
*1888 AND2X2_20
*1889 AOI22X1_17
*1890 NAND2X1_74
*1891 _194_
*1892 AND2X2_21
*1893 AOI22X1_17
*1894 NAND2X1_74
*1895 _196_
*1896 NAND3X1_66
*1897 NAND3X1_67
*1898 AOI21X1_56
*1899 _198_
*1900 NAND2X1_75
*1901 OAI21X1_139
*1902 NOR2X1_95
*1903 _199_
*1904 NOR2X1_95
*1905 NOR3X1_5
*1906 OAI21X1_118
*1907 _200_
*1908 OAI21X1_118
*1909 NAND3X1_67
*1910 AOI21X1_56
*1911 _201_
*1912 NAND3X1_67
*1913 OAI21X1_134
*1914 NAND3X1_68
*1915 _202_
*1916 NOR3X1_5
*1917 NOR3X1_6
*1918 OAI21X1_119
*1919 _203_
*1920 AOI21X1_55
*1921 NOR3X1_6
*1922 OAI21X1_119
*1923 _204_
*1924 OAI21X1_119
*1925 AOI21X1_61
*1926 NAND3X1_68
*1927 _206_
*1928 OR2X2_9
*1929 OAI21X1_134
*1930 OAI21X1_120
*1931 _207_
*1932 NOR3X1_6
*1933 AOI21X1_61
*1934 OAI21X1_120
*1935 _208_
*1936 AOI21X1_56
*1937 OAI21X1_134
*1938 OAI21X1_120
*1939 _210_
*1940 NAND3X1_69
*1941 NAND2X1_78
*1942 AOI21X1_57
*1943 _211_
*1944 OAI21X1_121
*1945 NAND2X1_77
*1946 NAND3X1_71
*1947 _213_
*1948 NAND2X1_77
*1949 NAND2X1_78
*1950 AOI21X1_57
*1951 _215_
*1952 INVX1_47
*1953 NAND2X1_83
*1954 OAI21X1_122
*1955 _216_
*1956 NAND2X1_78
*1957 OAI21X1_122
*1958 NAND2X1_83
*1959 _259_
*1960 NAND2X1_84
*1961 NAND3X1_72
*1962 INVX1_50
*1963 _260_
*1964 AND2X2_27
*1965 OAI21X1_135
*1966 NAND2X1_85
*1967 _263_
*1968 AND2X2_28
*1969 OAI21X1_136
*1970 NAND2X1_85
*1971 _265_
*1972 NAND3X1_72